tests/data/3bus.raw
     0,   100.00            / PSS/E-33
TSS 3-Bus Demo
TSS
     1,'Slack     ',  69.0000,3,   1,    1,    1,1.00000,   0.0000,    0.000,    0.000,1.05000,0.95000
     2,'Gen Bus   ',  69.0000,2,   1,    1,    1,1.00000,   0.0000,    0.000,    0.000,1.05000,0.95000
     3,'Load Bus  ',  69.0000,1,   1,    1,    1,1.00000,   0.0000,   50.000,   20.000,1.05000,0.95000
0 / END OF BUS DATA, BEGIN LOAD DATA
     1,3,   50.000,   20.000,    0.000,    0.000,    0.000,    0.000,0,0
0 / END OF LOAD DATA, BEGIN GENERATOR DATA
     1,1,   80.000,   30.000,    9999,  -9999,1.00000,     0,   100.000,0.00000, 0.00000,0.00000,1.00000,1,100.0,  350.000,    0.000,1,1.0000
     2,2,   30.000,   10.000,    9999,  -9999,1.00000,     0,   100.000,0.00000, 0.00000,0.00000,1.00000,1,100.0,  100.000,    0.000,1,1.0000
0 / END OF GENERATOR DATA, BEGIN BRANCH DATA
     1,     2,'1 ',  0.01000,  0.10000,   0.00000,   9900.0,   9900.0,   9900.0,  0.00000,  0.00000,  0.00000,  0.00000,1,1.0000
     2,     3,'1 ',  0.02000,  0.20000,   0.00000,   9900.0,   9900.0,   9900.0,  0.00000,  0.00000,  0.00000,  0.00000,1,1.0000
0 / END OF BRANCH DATA, BEGIN TRANSFORMER DATA
0 / END OF TRANSFORMER DATA
Q
